# _____                              _______________________________
# ____/ TELEMAC Project Definitions /______________________________/
#
#    space delimited list of active configurations
#
[Configurations]
configs:    ubugfmpich2
#
# _____          ___________________________________________________
# ____/ GENERAL /__________________________________________________/
[general]
modules:    system
#
cmd_lib:    ar cru <libname> <objs>
#
mods_all:   -I <config>
#
sfx_zip:    .gztar
sfx_lib:    .a
sfx_obj:    .o
sfx_mod:    .mod
sfx_exe:
#
val_root:   <root>/examples
val_rank:   all
# also possible val_rank:   <3 >7 6
cmd_obj_c: gcc -c <srcName> -o <objName>
#
# _____                         ____________________________________
# ____/ Ubuntu gfortran mpich2 /___________________________________/
[ubugfmpich2]
#
brief: parallel mode, using mpiexec directly (of the MPICH2 package).
       The only difference with the scalar versions (debugged) is the presence
       of the key mpi_cmdexec and the -DHAVE_MPI compilation directive.
       Of course, you also need the key par_cmdexec.
       Finally, note that this configuration also works whether
       processor is 0 or 1.
#
options: hermes_only
#
f2py_name: f2py3
pyd_fcompiler: gfortran
#
mpi_cmdexec:   /usr/bin/mpiexec -wdir <wdir> -n <ncsize> <exename>
#
cmd_obj:    gfortran -c -cpp -g -fbounds-check -Wall -fbacktrace -finit-real=nan -DHAVE_AED2 -DHAVE_MPI -DHAVE_MED -fconvert=big-endian -frecord-marker=4 <mods> <incs> <f95name>
#cmd_exe:    /usr/bin/mpif90 -fconvert=big-endian -frecord-marker=4 -v -lm -o <exename> <objs>  <libs>
#
incs_all:  -I /usr/lib/x86_64-linux-gnu/mpich/include -I /home/scorpion/telemac/v8p3/optionals/aed2 -I /home/scorpion/telemac/v8p3/optionals/aed2/include -I /home/scorpion/telemac/v8p3/optionals/med-4.1.0/include/
libs_all:  /usr/lib/x86_64-linux-gnu/libmpich.so -lpthread /home/scorpion/telemac/v8p3/optionals/metis-5.1.0/build/lib/libmetis.a /home/scorpion/telemac/v8p3/optionals/aed2/libaed2.a /home/scorpion/telemac/v8p3/optionals/med-4.1.0/lib/libmed.a /home/scorpion/telemac/v8p3/optionals/hdf5/lib/libhdf5.a
#
# _____                    _________________________________________
# ____/ Other Definitions /________________________________________/
#
# _____                          ___________________________________
# ____/ Debian gfortran openMPI /__________________________________/
[debgfopenmpi]
#
par_cmdexec:   <config>/partel < PARTEL.PAR >> <partel.log>
#
mpi_cmdexec:   /usr/bin/mpiexec --oversubscribe -wdir <wdir> -n <ncsize> <exename>
mpi_hosts:
#
cmd_obj:    /usr/bin/mpif90 -c -O3 -DHAVE_MPI -fconvert=big-endian -frecord-marker=4 <mods> <incs> <f95name>
cmd_lib:    ar cru <libname> <objs>
#cmd_exe:    /usr/bin/mpif90 -fconvert=big-endian -frecord-marker=4 -lpthread -v -lm -o <exename> <objs> <libs>
#
mods_all:   -I <config>
#
libs_all:    /usr/lib/x86_64-linux-gnu/openmpi/lib/libmpi.so.40.20.3 /home/scorpion/telemac/v8p3/optionals/metis-5.1.0/build/lib/libmetis.a
#
#
# ____/ Ubuntu gfortran scalar /___________________________________/
[ubugfortrans]
#
brief: scalar mode, Fortran optimisation 3.
   TELEMAC will work whether processor is 0 or 1
#
cmd_obj:    gfortran -c -cpp -O3 -fconvert=big-endian -frecord-marker=4 <mods> <incs> <f95name>
#cmd_exe:    gfortran -fconvert=big-endian -frecord-marker=4 -v -o <exename> <objs> <libs>
#
#
# ____/ Ubuntu gfortran scalar debug/______________________________/
[ubugfortransdbg]
#
brief: scalar mode, Fortran debug mode.
   TELEMAC will work whether processor is 0 or 1
#
cmd_obj:    gfortran -c -cpp -g -fbounds-check -Wall -fbacktrace -finit-real=nan -fconvert=big-endian -frecord-marker=4 <mods> <incs> <f95name>
#cmd_exe:    gfortran -fconvert=big-endian -frecord-marker=4 -v -o <exename> <objs> <libs>
#
#
# _____                     ________________________________________
# ____/ End of Definitions /_______________________________________/
#
